/*--------------------------------*- C++ -*----------------------------------*\
| =========                 |                                                 |
| \\      /  F ield         | OpenFOAM: The Open Source CFD Toolbox           |
|  \\    /   O peration     | Version:  v2012                                 |
|   \\  /    A nd           | Website:  www.openfoam.com                      |
|    \\/     M anipulation  |                                                 |
\*---------------------------------------------------------------------------*/
FoamFile
{
    version     2.0;
    format      ascii;
    class       volVectorField;
    object      U;
}
// * * * * * * * * * * * * * * * * * * * * * * * * * * * * * * * * * * * * * //
#include "$FOAM_CASE/system/shipDict";

Umean #eval {$shipParameters.shipVelocity};
mUmean #eval {-1*$shipParameters.shipVelocity};

dimensions      [0 1 -1 0 0 0 0];

internalField   uniform ($mUmean 0 0);

boundaryField
{
    #includeEtc "caseDicts/setConstraintTypes"

    inlet
    {
        type            fixedValue;
        value           $internalField;
    }

    outlet
    {
        type            outletPhaseMeanVelocity;
        alpha           alpha.water;
        Umean           $Umean;
        value           $internalField;
    }

    atmosphere
    {
        type            pressureInletOutletVelocity;
        value           uniform (0 0 0);
    }


    "(hull|deck|append)"
    {
        type            movingWallVelocity;
        value           uniform (0 0 0);
    }

}


// ************************************************************************* //
